src/Test_Network/C7_Master.dss
Clear
New Circuit.IEEE8500  
~ pu=1.05  r1=0  x1=0.001  r0=0  x0=0.001  
Redirect  LineCodes2.dss
Redirect  Triplex_Linecodes.dss
Redirect  C7_Lines.dss
Redirect  C7_Transformers.dss
Redirect  C7_LoadXfmrs.dss    ! Load Transformers
Redirect  C7_Triplex_Lines.dss
Redirect  C7_Loads.dss     ! Balanced Loads
Redirect  C7_Capacitors.dss
Redirect  C7_CapControls.dss
Redirect  C7_Regulators.dss
Set voltagebases=[115, 12.47,  0.48, 0.208]
Calcvoltagebases     ! This also establishes the bus list
Buscoords  C7_Buscoords.dss
